(---------------------------------------------------------------------)
(                                                                     )
(    IDF_IN Logfile                                                   )
(                                                                     )
(    Software Version : 16.6P004                                      )
(    Date/Time        : Wed Jul 09 21:10:05 2014                      )
(                                                                     )
(---------------------------------------------------------------------)


IDF file: D:/LayoutPCB/pedal_control_pcb/idf/pedal.bdf
Version: 3.0
Input file: D:/LayoutPCB/pedal_control_pcb/pedal.brd
Output file: D:/LayoutPCB/pedal_control_pcb/pedal.brd
idf_in complete.
